#!/system/bin/sh
#app_process=/system/bin/app_process64
cp /data/data/org.adaway/files/hosts $MODPATH/system/etc/
cp /data_mirror/data_ce/null/0/org.adaway/files/hosts $MODPATH/system/etc/