#!/system/bin/sh
#app_process=/system/bin/app_process64
cp -f /data/data/org.adaway/files/hosts $MODPATH/system/etc/
cp -f /data_mirror/data_ce/null/0/org.adaway/files/hosts $MODPATH/system/etc/
